
  EPA STORM WATER MANAGEMENT MODEL - VERSION 5.1 (Build 5.1.010)
  --------------------------------------------------------------

  
  *********************************************************
  NOTE: The summary statistics displayed in this report are
  based on results found at every computational time step,  
  not just on results from each reporting time step.
  *********************************************************
  
  ****************
  Analysis Options
  ****************
  Flow Units ............... GPM
  Process Models:
    Rainfall/Runoff ........ YES
    RDII ................... NO
    Snowmelt ............... NO
    Groundwater ............ NO
    Flow Routing ........... NO
    Water Quality .......... NO
  Infiltration Method ...... GREEN_AMPT
  Starting Date ............ JAN-06-2009 10:35:00
  Ending Date .............. MAR-31-2009 23:55:00
  Antecedent Dry Days ...... 0.0
  Report Time Step ......... 00:05:00
  Wet Time Step ............ 00:05:00
  Dry Time Step ............ 00:05:00
  
  
  **************************        Volume         Depth
  Runoff Quantity Continuity     acre-feet        inches
  **************************     ---------       -------
  Initial LID Storage ......         0.015         1.257
  Total Precipitation ......         0.024         1.930
  Evaporation Loss .........         0.000         0.000
  Infiltration Loss ........         0.000         0.000
  Surface Runoff ...........         0.000         0.000
  LID Drainage .............         0.020         1.624
  Final Storage ............         0.016         1.319
  Continuity Error (%) .....         7.668
  
  
  **************************        Volume        Volume
  Flow Routing Continuity        acre-feet      10^6 gal
  **************************     ---------     ---------
  Dry Weather Inflow .......         0.000         0.000
  Wet Weather Inflow .......         0.020         0.006
  Groundwater Inflow .......         0.000         0.000
  RDII Inflow ..............         0.000         0.000
  External Inflow ..........         0.000         0.000
  External Outflow .........         0.020         0.006
  Flooding Loss ............         0.000         0.000
  Evaporation Loss .........         0.000         0.000
  Exfiltration Loss ........         0.000         0.000
  Initial Stored Volume ....         0.000         0.000
  Final Stored Volume ......         0.000         0.000
  Continuity Error (%) .....         0.000
  
  
  ***************************
  Subcatchment Runoff Summary
  ***************************
  
  --------------------------------------------------------------------------------------------------------
                            Total      Total      Total      Total      Total       Total     Peak  Runoff
                           Precip      Runon       Evap      Infil     Runoff      Runoff   Runoff   Coeff
  Subcatchment                 in         in         in         in         in    10^6 gal      GPM
  --------------------------------------------------------------------------------------------------------
  FS10                       1.93       0.00       0.00       0.00       1.62        0.01    11.05   0.841
  

  ***********************
  LID Performance Summary
  ***********************

  --------------------------------------------------------------------------------------------------------------------
                                         Total      Evap     Infil   Surface    Drain    Initial     Final  Continuity
                                        Inflow      Loss      Loss   Outflow   Outflow   Storage   Storage       Error
  Subcatchment      LID Control             in        in        in        in        in        in        in           %
  --------------------------------------------------------------------------------------------------------------------
  FS10              GreenRoof             1.93      0.00      0.00      0.00      1.62      1.26      1.32        7.64

  Analysis begun on:  Sat Jul 01 16:27:01 2017
  Analysis ended on:  Sat Jul 01 16:27:02 2017
  Total elapsed time: 00:00:01